version 2
run General-0-20190610-13:38:33-11049
attr configname General
attr datetime 20190610-13:38:33
attr experiment General
attr inifile omnetpp.ini
attr iterationvars ""
attr iterationvarsf ""
attr measurement ""
attr network MasterSlave
attr processid 11049
attr repetition 0
attr replication #0
attr resultdir results
attr runnumber 0
attr seedset 0
param MasterSlave.nodeCmp[1].master true

vector 0 MasterSlave.nodeCmp[1].layer2 "" ETV
0	27	0.200010241656	0.1
0	29	0.225542652593	0.1
0	42	0.280163469806	0.200163469806
0	44	0.284641220901	0.204641220901
0	57	0.367937378375	0.207937378375
0	59	0.369698277437	0.209698277437
0	72	0.44169818967	0.20169818967
0	74	0.446668046553	0.206668046553
0	87	0.528019218336	0.208019218336
0	89	0.52862736013	0.20862736013
0	102	0.606979589547	0.206979589547
0	104	0.614067494959	0.214067494959
0	117	0.680316735752	0.200316735752
0	119	0.687881715345	0.207881715345
0	132	0.760209740532	0.200209740532
0	134	0.767592207987	0.207592207987
0	147	0.840134580162	0.200134580162
0	149	0.844714059349	0.204714059349
0	162	0.920128439152	0.200128439152
0	164	0.938985309253	0.218985309253
0	177	1.000242494703	0.200242494703
0	179	1.009813334248	0.209813334248
0	192	1.080264925777	0.200264925777
0	194	1.087639031272	0.207639031272
0	207	1.177279966687	0.217279966687
0	209	1.17951682734	0.21951682734
0	222	1.240073307126	0.200073307126
0	224	1.242363859214	0.202363859214

